<?xml version="1.0" encoding="UTF-8"?>
<!DOCTYPE network SYSTEM "http://www.matsim.org/files/dtd/network_v2.dtd">
<network>

<!-- ====================================================================== -->

	<nodes>
		<node id="MyCiTi_1" x="-53196.45015472643" y="-3755010.0058102254" >
		</node>
		<node id="MyCiTi_10" x="-54879.377618451086" y="-3753903.660850383" >
		</node>
		<node id="MyCiTi_100" x="-46659.23389528914" y="-3749500.821686937" >
		</node>
		<node id="MyCiTi_101" x="-54624.449579504515" y="-3757195.8898357535" >
		</node>
		<node id="MyCiTi_102" x="-54411.36743645008" y="-3757304.3723151847" >
		</node>
		<node id="MyCiTi_103" x="-54695.57266555985" y="-3752688.7862162516" >
		</node>
		<node id="MyCiTi_104" x="-45406.12729627822" y="-3743874.6976400134" >
		</node>
		<node id="MyCiTi_105" x="-47346.768764767396" y="-3742262.718144452" >
		</node>
		<node id="MyCiTi_106" x="-51513.05130326114" y="-3729433.4334029756" >
		</node>
		<node id="MyCiTi_107" x="-53136.13997873439" y="-3756714.11212295" >
		</node>
		<node id="MyCiTi_108" x="-49008.33722750507" y="-3754324.4600642594" >
		</node>
		<node id="MyCiTi_109" x="-53696.774914737856" y="-3753368.5029409076" >
		</node>
		<node id="MyCiTi_11" x="-50096.46449212008" y="-3740918.729058892" >
		</node>
		<node id="MyCiTi_110" x="-45418.33882816437" y="-3742885.7095736424" >
		</node>
		<node id="MyCiTi_111" x="-47527.489331750134" y="-3741593.8623608775" >
		</node>
		<node id="MyCiTi_112" x="-53908.33164751495" y="-3754658.7231527017" >
		</node>
		<node id="MyCiTi_113" x="-49302.89985182062" y="-3754714.280235003" >
		</node>
		<node id="MyCiTi_114" x="-45404.008970719195" y="-3743512.8560766852" >
		</node>
		<node id="MyCiTi_115" x="-45600.81691509237" y="-3743044.7016020888" >
		</node>
		<node id="MyCiTi_116" x="-44648.64163955859" y="-3742111.2705567605" >
		</node>
		<node id="MyCiTi_117" x="-46669.722614512066" y="-3743649.9814018225" >
		</node>
		<node id="MyCiTi_118" x="-45984.29222169871" y="-3741678.695733301" >
		</node>
		<node id="MyCiTi_119" x="-51567.702093239895" y="-3730700.513917339" >
		</node>
		<node id="MyCiTi_12" x="-45068.621563560286" y="-3744285.4525242564" >
		</node>
		<node id="MyCiTi_120" x="-49410.73015738959" y="-3742382.949253664" >
		</node>
		<node id="MyCiTi_121" x="-50973.497352151724" y="-3729659.489262821" >
		</node>
		<node id="MyCiTi_122" x="-44579.29156337944" y="-3743990.7572628935" >
		</node>
		<node id="MyCiTi_123" x="-47774.13738097858" y="-3744199.800369164" >
		</node>
		<node id="MyCiTi_124" x="-56224.9825006772" y="-3753799.1624057367" >
		</node>
		<node id="MyCiTi_125" x="-57352.90925156694" y="-3755109.9132461757" >
		</node>
		<node id="MyCiTi_126" x="-46231.25395739161" y="-3748395.257874288" >
		</node>
		<node id="MyCiTi_127" x="-48305.5841954073" y="-3741587.6776045715" >
		</node>
		<node id="MyCiTi_128" x="-55199.31625019673" y="-3753882.941334753" >
		</node>
		<node id="MyCiTi_129" x="-45856.261113775035" y="-3742691.0283971988" >
		</node>
		<node id="MyCiTi_13" x="-47668.34190103318" y="-3741945.6375599136" >
		</node>
		<node id="MyCiTi_130" x="-54561.7737228845" y="-3756840.784033132" >
		</node>
		<node id="MyCiTi_131" x="-51198.90245968952" y="-3729694.079276353" >
		</node>
		<node id="MyCiTi_132" x="-55866.899169540826" y="-3754116.5190478433" >
		</node>
		<node id="MyCiTi_133" x="-51518.8079327104" y="-3731137.7281128727" >
		</node>
		<node id="MyCiTi_134" x="-54331.0799182793" y="-3752843.1012536827" >
		</node>
		<node id="MyCiTi_135" x="-51369.17863632608" y="-3732450.2449750775" >
		</node>
		<node id="MyCiTi_136" x="-55932.703561257964" y="-3753597.990048977" >
		</node>
		<node id="MyCiTi_137" x="-53516.15608292032" y="-3756031.773709526" >
		</node>
		<node id="MyCiTi_138" x="-53627.49931700952" y="-3756266.402379311" >
		</node>
		<node id="MyCiTi_139" x="-49519.30065526561" y="-3755768.3146031583" >
		</node>
		<node id="MyCiTi_14" x="-48286.95238167479" y="-3743181.9978663996" >
		</node>
		<node id="MyCiTi_140" x="-56844.20764047056" y="-3754807.9599745097" >
		</node>
		<node id="MyCiTi_142" x="-48868.43793883549" y="-3743276.47335618" >
		</node>
		<node id="MyCiTi_143" x="-48799.23270877584" y="-3754037.4726159805" >
		</node>
		<node id="MyCiTi_144" x="-49077.38874697236" y="-3742911.942125794" >
		</node>
		<node id="MyCiTi_145" x="-54646.80383549211" y="-3753954.7881439677" >
		</node>
		<node id="MyCiTi_146" x="-54041.14739314542" y="-3753062.9677250693" >
		</node>
		<node id="MyCiTi_147" x="-49471.08924009706" y="-3755934.8958168337" >
		</node>
		<node id="MyCiTi_148" x="-55555.53127491504" y="-3753890.4537336994" >
		</node>
		<node id="MyCiTi_149" x="-52856.73816209257" y="-3757094.3616120457" >
		</node>
		<node id="MyCiTi_15" x="-48535.36494565618" y="-3742073.357925138" >
		</node>
		<node id="MyCiTi_150" x="-46630.55240314366" y="-3743329.7091475455" >
		</node>
		<node id="MyCiTi_151" x="-46524.536155457645" y="-3743402.5336006396" >
		</node>
		<node id="MyCiTi_152" x="-54374.15768107699" y="-3753607.076785227" >
		</node>
		<node id="MyCiTi_153" x="-48468.45739239445" y="-3743030.3990056925" >
		</node>
		<node id="MyCiTi_154" x="-53582.878841894264" y="-3754949.00619586" >
		</node>
		<node id="MyCiTi_155" x="-46620.279520004995" y="-3747470.606878189" >
		</node>
		<node id="MyCiTi_156" x="-55029.41462543901" y="-3752741.9619460762" >
		</node>
		<node id="MyCiTi_157" x="-47320.95007946071" y="-3744342.0725229327" >
		</node>
		<node id="MyCiTi_158" x="-53099.867273093456" y="-3755645.129977423" >
		</node>
		<node id="MyCiTi_159" x="-56221.90111061493" y="-3754639.8605543827" >
		</node>
		<node id="MyCiTi_16" x="-56712.25550090229" y="-3754503.673890208" >
		</node>
		<node id="MyCiTi_160" x="-53247.003342024196" y="-3754801.1371829733" >
		</node>
		<node id="MyCiTi_161" x="-55635.51164262813" y="-3753262.3549068873" >
		</node>
		<node id="MyCiTi_162" x="-57175.79126993434" y="-3755175.9560019774" >
		</node>
		<node id="MyCiTi_163" x="-48294.05194672578" y="-3743900.4866761155" >
		</node>
		<node id="MyCiTi_164" x="-47786.11031836608" y="-3741321.2851177542" >
		</node>
		<node id="MyCiTi_165" x="-53741.560929248044" y="-3756893.4520326536" >
		</node>
		<node id="MyCiTi_166" x="-54996.29888903815" y="-3756733.6966464166" >
		</node>
		<node id="MyCiTi_167" x="-54123.19206177644" y="-3755666.8833415145" >
		</node>
		<node id="MyCiTi_168" x="-54185.240548350375" y="-3755617.9858175754" >
		</node>
		<node id="MyCiTi_169" x="-50938.76133528223" y="-3756768.0622398746" >
		</node>
		<node id="MyCiTi_17" x="-49736.18330165575" y="-3741997.406516009" >
		</node>
		<node id="MyCiTi_170" x="-54165.11513863913" y="-3757232.0806564586" >
		</node>
		<node id="MyCiTi_171" x="-50749.35018624447" y="-3756865.328005999" >
		</node>
		<node id="MyCiTi_172" x="-50197.01906614708" y="-3756042.9780121315" >
		</node>
		<node id="MyCiTi_173" x="-47232.972826735364" y="-3742703.7395550176" >
		</node>
		<node id="MyCiTi_174" x="-54543.16797917823" y="-3756490.70199195" >
		</node>
		<node id="MyCiTi_175" x="-48198.01941688121" y="-3743649.0910276454" >
		</node>
		<node id="MyCiTi_176" x="-48436.98115697824" y="-3753537.3412083066" >
		</node>
		<node id="MyCiTi_177" x="-51406.89161416409" y="-3729915.4848110033" >
		</node>
		<node id="MyCiTi_178" x="-45309.54961650693" y="-3741666.592367962" >
		</node>
		<node id="MyCiTi_18" x="-46988.22593615497" y="-3741900.222206305" >
		</node>
		<node id="MyCiTi_180" x="-53568.42196196178" y="-3752940.8671581717" >
		</node>
		<node id="MyCiTi_181" x="-50257.50322655834" y="-3740411.324102695" >
		</node>
		<node id="MyCiTi_182" x="-47460.953379531646" y="-3742021.750287026" >
		</node>
		<node id="MyCiTi_183" x="-54810.77072151824" y="-3756551.2571771285" >
		</node>
		<node id="MyCiTi_184" x="-48285.31350597159" y="-3742792.6476804763" >
		</node>
		<node id="MyCiTi_185" x="-53050.50173713231" y="-3757247.080173135" >
		</node>
		<node id="MyCiTi_186" x="-45658.69491053007" y="-3744859.1289826264" >
		</node>
		<node id="MyCiTi_187" x="-45622.489452259106" y="-3743169.0946813533" >
		</node>
		<node id="MyCiTi_188" x="-45938.112440271994" y="-3742210.8481572047" >
		</node>
		<node id="MyCiTi_189" x="-47058.318627438675" y="-3750816.189961366" >
		</node>
		<node id="MyCiTi_19" x="-53709.849733379066" y="-3753059.9242147426" >
		</node>
		<node id="MyCiTi_190" x="-46598.09762100256" y="-3741776.791625358" >
		</node>
		<node id="MyCiTi_191" x="-50973.21506531512" y="-3755233.360500455" >
		</node>
		<node id="MyCiTi_192" x="-48029.32952185221" y="-3752770.6636028974" >
		</node>
		<node id="MyCiTi_193" x="-51872.8766748895" y="-3756393.255177353" >
		</node>
		<node id="MyCiTi_194" x="-44480.103078800545" y="-3751483.133853619" >
		</node>
		<node id="MyCiTi_195" x="-44828.24227287634" y="-3751839.117346932" >
		</node>
		<node id="MyCiTi_196" x="-44546.34536536798" y="-3747757.783763193" >
		</node>
		<node id="MyCiTi_197" x="-45107.678903265405" y="-3749151.857372184" >
		</node>
		<node id="MyCiTi_198" x="-44175.65188610011" y="-3750638.8011639174" >
		</node>
		<node id="MyCiTi_199" x="-44296.7140490966" y="-3748392.655210977" >
		</node>
		<node id="MyCiTi_2" x="-37404.430798134046" y="-3760336.883203517" >
		</node>
		<node id="MyCiTi_20" x="-57154.447315614554" y="-3755449.4855578183" >
		</node>
		<node id="MyCiTi_200" x="-44332.68338871358" y="-3750284.6858183444" >
		</node>
		<node id="MyCiTi_201" x="-44305.845385964116" y="-3748061.202116793" >
		</node>
		<node id="MyCiTi_202" x="-44387.20245818083" y="-3751190.857831345" >
		</node>
		<node id="MyCiTi_203" x="-44354.537977346496" y="-3750934.858663907" >
		</node>
		<node id="MyCiTi_204" x="-45094.84201353243" y="-3748600.0051285154" >
		</node>
		<node id="MyCiTi_205" x="-44481.47045341418" y="-3749786.776953306" >
		</node>
		<node id="MyCiTi_206" x="-44601.233527787954" y="-3749236.322841507" >
		</node>
		<node id="MyCiTi_207" x="-44463.25461938675" y="-3748863.859967536" >
		</node>
		<node id="MyCiTi_208" x="-45215.35761543222" y="-3752853.2488465025" >
		</node>
		<node id="MyCiTi_209" x="-45701.589447993574" y="-3751874.9457935756" >
		</node>
		<node id="MyCiTi_21" x="-50708.65332952164" y="-3734336.0089255" >
		</node>
		<node id="MyCiTi_210" x="-45689.984276404946" y="-3752028.021402444" >
		</node>
		<node id="MyCiTi_211" x="-45261.58078445358" y="-3752275.7735123327" >
		</node>
		<node id="MyCiTi_212" x="-44794.17676845065" y="-3747728.6093408265" >
		</node>
		<node id="MyCiTi_213" x="-53309.81479320294" y="-3753765.2511909925" >
		</node>
		<node id="MyCiTi_214" x="-55050.90222323289" y="-3756389.9536836497" >
		</node>
		<node id="MyCiTi_215" x="-55312.5116831677" y="-3756653.8367885016" >
		</node>
		<node id="MyCiTi_216" x="-55937.923195743475" y="-3757396.446570599" >
		</node>
		<node id="MyCiTi_217" x="-57382.097268457845" y="-3759761.850030373" >
		</node>
		<node id="MyCiTi_218" x="-56221.26508451708" y="-3757938.8938969276" >
		</node>
		<node id="MyCiTi_219" x="-57130.68023365636" y="-3759456.388136043" >
		</node>
		<node id="MyCiTi_22" x="-47106.91364022888" y="-3744105.4546034364" >
		</node>
		<node id="MyCiTi_220" x="-57220.214901255546" y="-3759844.622217408" >
		</node>
		<node id="MyCiTi_221" x="-57449.48236614522" y="-3758357.7968230504" >
		</node>
		<node id="MyCiTi_223" x="-56972.08017498271" y="-3758577.1054044026" >
		</node>
		<node id="MyCiTi_224" x="-56841.37976852555" y="-3758343.8161169146" >
		</node>
		<node id="MyCiTi_225" x="-56738.23998794113" y="-3758238.815344142" >
		</node>
		<node id="MyCiTi_226" x="-56589.73475506246" y="-3758160.1676269835" >
		</node>
		<node id="MyCiTi_227" x="-53519.85863003782" y="-3755375.10826026" >
		</node>
		<node id="MyCiTi_228" x="-54353.25938568323" y="-3755892.214939634" >
		</node>
		<node id="MyCiTi_229" x="-54565.0739249853" y="-3756084.6496312614" >
		</node>
		<node id="MyCiTi_23" x="-48315.503803854685" y="-3742517.5992735038" >
		</node>
		<node id="MyCiTi_230" x="-56837.51927287208" y="-3759026.3881579675" >
		</node>
		<node id="MyCiTi_231" x="-57029.324110893955" y="-3759241.8529810472" >
		</node>
		<node id="MyCiTi_232" x="-57460.1965495029" y="-3759472.800418346" >
		</node>
		<node id="MyCiTi_233" x="-57516.778567126225" y="-3758891.657977476" >
		</node>
		<node id="MyCiTi_234" x="-57579.25144445044" y="-3758650.657529734" >
		</node>
		<node id="MyCiTi_235" x="-56649.199136250674" y="-3758852.8235661504" >
		</node>
		<node id="MyCiTi_236" x="-56643.0933294947" y="-3759023.8379936363" >
		</node>
		<node id="MyCiTi_237" x="-56749.58327524709" y="-3759208.726221352" >
		</node>
		<node id="MyCiTi_238" x="-54828.65271202893" y="-3756144.7570893834" >
		</node>
		<node id="MyCiTi_24" x="-57175.78758281784" y="-3754976.952151394" >
		</node>
		<node id="MyCiTi_243" x="-45970.41649198063" y="-3748600.257460657" >
		</node>
		<node id="MyCiTi_244" x="-47360.152301888695" y="-3743234.4735986697" >
		</node>
		<node id="MyCiTi_245" x="-47770.60281957714" y="-3742327.9475482074" >
		</node>
		<node id="MyCiTi_25" x="-51172.12136240919" y="-3756648.6299816193" >
		</node>
		<node id="MyCiTi_250" x="-59155.03020765125" y="-3768574.3302871976" >
		</node>
		<node id="MyCiTi_253" x="-60162.07061866555" y="-3769027.5705987634" >
		</node>
		<node id="MyCiTi_254" x="-60430.65692838163" y="-3769321.2536278623" >
		</node>
		<node id="MyCiTi_255" x="-60338.32953952837" y="-3769919.633122868" >
		</node>
		<node id="MyCiTi_256" x="-60464.88312902076" y="-3770083.45494858" >
		</node>
		<node id="MyCiTi_257" x="-60767.17090743428" y="-3769853.9378894074" >
		</node>
		<node id="MyCiTi_258" x="-59970.59675426204" y="-3768628.4462647648" >
		</node>
		<node id="MyCiTi_259" x="-60014.32351415793" y="-3768257.3292314103" >
		</node>
		<node id="MyCiTi_26" x="-51625.83842712411" y="-3756508.769030664" >
		</node>
		<node id="MyCiTi_260" x="-60094.82527733729" y="-3767898.204863058" >
		</node>
		<node id="MyCiTi_261" x="-60206.13136337247" y="-3767524.8564499165" >
		</node>
		<node id="MyCiTi_262" x="-60062.28801556126" y="-3766933.6635364187" >
		</node>
		<node id="MyCiTi_263" x="-59924.01624655628" y="-3766045.7171501503" >
		</node>
		<node id="MyCiTi_264" x="-60033.08947062584" y="-3765407.637008955" >
		</node>
		<node id="MyCiTi_265" x="-60275.789713698774" y="-3764547.404414764" >
		</node>
		<node id="MyCiTi_266" x="-59990.246854344434" y="-3762562.022170313" >
		</node>
		<node id="MyCiTi_267" x="-58098.65468381364" y="-3760554.4728368577" >
		</node>
		<node id="MyCiTi_268" x="-57900.88002543183" y="-3759751.138796845" >
		</node>
		<node id="MyCiTi_269" x="-57577.49392099152" y="-3759295.1761365402" >
		</node>
		<node id="MyCiTi_27" x="-44981.55271420516" y="-3742372.450186246" >
		</node>
		<node id="MyCiTi_270" x="-57430.406190872614" y="-3758017.1322918274" >
		</node>
		<node id="MyCiTi_271" x="-57636.00301436137" y="-3757688.479603352" >
		</node>
		<node id="MyCiTi_272" x="-57724.33814463076" y="-3757367.0294854143" >
		</node>
		<node id="MyCiTi_273" x="-57565.53340507827" y="-3757174.196959665" >
		</node>
		<node id="MyCiTi_274" x="-57480.21786405155" y="-3756875.6531917783" >
		</node>
		<node id="MyCiTi_275" x="-57495.697282972185" y="-3756462.4300955757" >
		</node>
		<node id="MyCiTi_276" x="-57433.43164495069" y="-3755699.6471994566" >
		</node>
		<node id="MyCiTi_277" x="-57361.46954163147" y="-3755437.9033046495" >
		</node>
		<node id="MyCiTi_278" x="-56798.12377303286" y="-3754897.960162087" >
		</node>
		<node id="MyCiTi_279" x="-56586.14539770752" y="-3754699.706442951" >
		</node>
		<node id="MyCiTi_28" x="-53813.08388833793" y="-3755204.330369804" >
		</node>
		<node id="MyCiTi_280" x="-56401.91874846909" y="-3754436.433913598" >
		</node>
		<node id="MyCiTi_281" x="-56223.04819188979" y="-3754183.2358638723" >
		</node>
		<node id="MyCiTi_282" x="-56045.2622506291" y="-3753932.524858863" >
		</node>
		<node id="MyCiTi_283" x="-55859.980595433975" y="-3753743.9667641902" >
		</node>
		<node id="MyCiTi_284" x="-55655.388321085244" y="-3753634.9081872078" >
		</node>
		<node id="MyCiTi_285" x="-55257.856238773675" y="-3753600.1965622525" >
		</node>
		<node id="MyCiTi_286" x="-54843.92702634387" y="-3753564.1867452217" >
		</node>
		<node id="MyCiTi_287" x="-54284.7980582456" y="-3753736.4240766643" >
		</node>
		<node id="MyCiTi_288" x="-53995.031968758616" y="-3754051.3190310085" >
		</node>
		<node id="MyCiTi_289" x="-53785.60761799727" y="-3754455.456325475" >
		</node>
		<node id="MyCiTi_29" x="-52721.694300889605" y="-3755025.852292818" >
		</node>
		<node id="MyCiTi_290" x="-53524.630685192205" y="-3754777.481272009" >
		</node>
		<node id="MyCiTi_291" x="-59191.61275092923" y="-3768874.29259959" >
		</node>
		<node id="MyCiTi_292" x="-55239.67842471785" y="-3758030.8532702196" >
		</node>
		<node id="MyCiTi_293" x="-59921.47770526667" y="-3767228.6394541482" >
		</node>
		<node id="MyCiTi_294" x="-59402.934136274955" y="-3767089.2007908663" >
		</node>
		<node id="MyCiTi_295" x="-59346.7099131162" y="-3767946.2810302065" >
		</node>
		<node id="MyCiTi_296" x="-59206.099930112505" y="-3768242.1371320346" >
		</node>
		<node id="MyCiTi_297" x="-43952.70580561265" y="-3745385.477772954" >
		</node>
		<node id="MyCiTi_298" x="-44825.19913489428" y="-3745119.3345710873" >
		</node>
		<node id="MyCiTi_299" x="-43421.71274871616" y="-3744234.2124586366" >
		</node>
		<node id="MyCiTi_3" x="-56091.764188577545" y="-3754447.242451082" >
		</node>
		<node id="MyCiTi_30" x="-53006.936375737016" y="-3754551.92869543" >
		</node>
		<node id="MyCiTi_300" x="-42866.228856167836" y="-3743332.1136574964" >
		</node>
		<node id="MyCiTi_301" x="-42569.980117054896" y="-3742931.7972984356" >
		</node>
		<node id="MyCiTi_302" x="-47330.373147176186" y="-3716299.811066254" >
		</node>
		<node id="MyCiTi_303" x="-47194.61186533929" y="-3715403.8614725303" >
		</node>
		<node id="MyCiTi_304" x="-47716.69089122662" y="-3716239.993055219" >
		</node>
		<node id="MyCiTi_305" x="-47095.40101307181" y="-3716948.0336648934" >
		</node>
		<node id="MyCiTi_306" x="-46700.0559372934" y="-3716913.8838752424" >
		</node>
		<node id="MyCiTi_307" x="-47231.074257032255" y="-3714643.802526698" >
		</node>
		<node id="MyCiTi_308" x="-47116.735183696306" y="-3716051.6901850197" >
		</node>
		<node id="MyCiTi_309" x="-47702.15395496683" y="-3717579.6036790176" >
		</node>
		<node id="MyCiTi_310" x="-47859.66984599465" y="-3717193.610594939" >
		</node>
		<node id="MyCiTi_311" x="-48136.95699181852" y="-3718450.880393545" >
		</node>
		<node id="MyCiTi_312" x="-48136.20208388553" y="-3719305.900761421" >
		</node>
		<node id="MyCiTi_313" x="-46661.79285310266" y="-3714331.3964178334" >
		</node>
		<node id="MyCiTi_314" x="-48074.15089752265" y="-3716177.439629581" >
		</node>
		<node id="MyCiTi_315" x="-47396.52361277146" y="-3716564.567938007" >
		</node>
		<node id="MyCiTi_316" x="-46986.71005183279" y="-3716486.134097106" >
		</node>
		<node id="MyCiTi_317" x="-48142.735292588426" y="-3718131.1837022468" >
		</node>
		<node id="MyCiTi_318" x="-47981.00027345128" y="-3715874.5534944623" >
		</node>
		<node id="MyCiTi_319" x="-47278.48527686069" y="-3716325.122757331" >
		</node>
		<node id="MyCiTi_32" x="-51130.9332985612" y="-3756570.981317099" >
		</node>
		<node id="MyCiTi_320" x="-47722.10801953225" y="-3713592.939643773" >
		</node>
		<node id="MyCiTi_321" x="-47865.91900499913" y="-3719033.6849186607" >
		</node>
		<node id="MyCiTi_322" x="-47710.10011574479" y="-3718213.9357694634" >
		</node>
		<node id="MyCiTi_323" x="-47182.154229704734" y="-3718084.993001603" >
		</node>
		<node id="MyCiTi_324" x="-48427.74747063885" y="-3717685.1657192945" >
		</node>
		<node id="MyCiTi_325" x="-47611.15299142024" y="-3713661.770005324" >
		</node>
		<node id="MyCiTi_326" x="-46285.30532911801" y="-3713887.180222259" >
		</node>
		<node id="MyCiTi_327" x="-47910.27797059247" y="-3713274.7609352227" >
		</node>
		<node id="MyCiTi_328" x="-48363.300867725295" y="-3719146.429189452" >
		</node>
		<node id="MyCiTi_329" x="-47318.24163038228" y="-3713469.6014556377" >
		</node>
		<node id="MyCiTi_33" x="-51481.272867620544" y="-3756535.0496707833" >
		</node>
		<node id="MyCiTi_330" x="-47567.105876482856" y="-3713215.492901628" >
		</node>
		<node id="MyCiTi_331" x="-46358.50803785147" y="-3714153.182315079" >
		</node>
		<node id="MyCiTi_332" x="-48792.9894897797" y="-3717982.169309352" >
		</node>
		<node id="MyCiTi_333" x="-46575.61993973685" y="-3713984.081181796" >
		</node>
		<node id="MyCiTi_334" x="-47509.11788855488" y="-3715592.6958248997" >
		</node>
		<node id="MyCiTi_335" x="-46982.44804340939" y="-3715714.283513289" >
		</node>
		<node id="MyCiTi_336" x="-47503.893620392846" y="-3713894.8350106855" >
		</node>
		<node id="MyCiTi_337" x="-47483.55916893528" y="-3714449.3285252894" >
		</node>
		<node id="MyCiTi_338" x="-46991.04712442886" y="-3714457.0606501475" >
		</node>
		<node id="MyCiTi_339" x="-47605.12687654101" y="-3717197.6713103205" >
		</node>
		<node id="MyCiTi_34" x="-52638.83957475391" y="-3756016.1627958417" >
		</node>
		<node id="MyCiTi_340" x="-47998.603095605045" y="-3717556.8984873183" >
		</node>
		<node id="MyCiTi_341" x="-47517.925525315244" y="-3714833.831922546" >
		</node>
		<node id="MyCiTi_342" x="-29245.21373278713" y="-3768262.5830261507" >
		</node>
		<node id="MyCiTi_343" x="-28390.86372852662" y="-3768714.8427526974" >
		</node>
		<node id="MyCiTi_344" x="-46654.22517394483" y="-3715432.690643032" >
		</node>
		<node id="MyCiTi_346" x="-35201.41369402968" y="-3768145.689836033" >
		</node>
		<node id="MyCiTi_347" x="-28444.855165083773" y="-3769848.0109363226" >
		</node>
		<node id="MyCiTi_348" x="-27958.205006307882" y="-3770024.6480534803" >
		</node>
		<node id="MyCiTi_349" x="-35532.36563286297" y="-3767337.0607882384" >
		</node>
		<node id="MyCiTi_35" x="-53396.37691481481" y="-3755388.999733284" >
		</node>
		<node id="MyCiTi_350" x="-35009.83581655635" y="-3769011.052174984" >
		</node>
		<node id="MyCiTi_351" x="-34958.69261694425" y="-3768704.467311343" >
		</node>
		<node id="MyCiTi_352" x="-36165.3097868006" y="-3766261.786448236" >
		</node>
		<node id="MyCiTi_353" x="-28879.93200786779" y="-3768597.7461006828" >
		</node>
		<node id="MyCiTi_354" x="-27951.973580853624" y="-3768906.0631402954" >
		</node>
		<node id="MyCiTi_355" x="-29465.078361219992" y="-3767838.127692235" >
		</node>
		<node id="MyCiTi_358" x="-48799.952723781236" y="-3709773.424778677" >
		</node>
		<node id="MyCiTi_359" x="-49151.92662759008" y="-3709741.9372536847" >
		</node>
		<node id="MyCiTi_36" x="-50030.64398602469" y="-3741213.8841992007" >
		</node>
		<node id="MyCiTi_360" x="-49566.77344818052" y="-3709716.6642441736" >
		</node>
		<node id="MyCiTi_361" x="-49807.509281750026" y="-3709905.96719937" >
		</node>
		<node id="MyCiTi_362" x="-46779.996384341226" y="-3714870.036761032" >
		</node>
		<node id="MyCiTi_363" x="-46992.632862485734" y="-3714493.6715703844" >
		</node>
		<node id="MyCiTi_364" x="-47034.768646309574" y="-3714099.783220689" >
		</node>
		<node id="MyCiTi_365" x="-48060.10392178631" y="-3710596.936448353" >
		</node>
		<node id="MyCiTi_366" x="-48518.774844986736" y="-3710221.3910760316" >
		</node>
		<node id="MyCiTi_368" x="-44534.016986150134" y="-3712510.967480366" >
		</node>
		<node id="MyCiTi_369" x="-44590.04276400465" y="-3713009.0821848568" >
		</node>
		<node id="MyCiTi_37" x="-54166.782623562816" y="-3756923.82374573" >
		</node>
		<node id="MyCiTi_370" x="-47008.8539717433" y="-3715545.538442199" >
		</node>
		<node id="MyCiTi_372" x="-46440.67708768742" y="-3715600.8454023455" >
		</node>
		<node id="MyCiTi_373" x="-46325.34304776398" y="-3716065.1502188756" >
		</node>
		<node id="MyCiTi_374" x="-45815.62977783363" y="-3715939.7004045225" >
		</node>
		<node id="MyCiTi_375" x="-46038.4795387785" y="-3715628.4169820286" >
		</node>
		<node id="MyCiTi_376" x="-44395.31507331157" y="-3746973.6799940807" >
		</node>
		<node id="MyCiTi_377" x="-45240.05737495916" y="-3748526.3199778763" >
		</node>
		<node id="MyCiTi_378" x="-45066.71006394849" y="-3749615.880413344" >
		</node>
		<node id="MyCiTi_379" x="-45291.49217023921" y="-3750870.891297542" >
		</node>
		<node id="MyCiTi_38" x="-46339.61444255949" y="-3742345.0113167507" >
		</node>
		<node id="MyCiTi_382" x="-47840.10878167594" y="-3713966.2677318654" >
		</node>
		<node id="MyCiTi_383" x="-47945.910260585726" y="-3714409.6930438313" >
		</node>
		<node id="MyCiTi_384" x="-47508.98865933332" y="-3714459.3668159186" >
		</node>
		<node id="MyCiTi_385" x="-44518.40984342934" y="-3712615.1881731115" >
		</node>
		<node id="MyCiTi_386" x="-46952.970163472004" y="-3713563.521688728" >
		</node>
		<node id="MyCiTi_387" x="-45753.80360544442" y="-3715529.335296302" >
		</node>
		<node id="MyCiTi_388" x="-46434.3280755188" y="-3716166.757122647" >
		</node>
		<node id="MyCiTi_389" x="-46722.639368896336" y="-3715902.2271469166" >
		</node>
		<node id="MyCiTi_39" x="-56762.124654470834" y="-3755288.893566519" >
		</node>
		<node id="MyCiTi_390" x="-45906.654352742415" y="-3716237.526432367" >
		</node>
		<node id="MyCiTi_391" x="-46544.27108864005" y="-3716849.7063080417" >
		</node>
		<node id="MyCiTi_392" x="-46148.98256541193" y="-3716725.0219886582" >
		</node>
		<node id="MyCiTi_393" x="-46079.52952940369" y="-3717001.2476459243" >
		</node>
		<node id="MyCiTi_394" x="-46240.13208621527" y="-3717235.601724024" >
		</node>
		<node id="MyCiTi_395" x="-46698.1265359564" y="-3717231.3027654816" >
		</node>
		<node id="MyCiTi_396" x="-48238.332317842534" y="-3709868.4837375637" >
		</node>
		<node id="MyCiTi_397" x="-48421.98467407526" y="-3709440.428234176" >
		</node>
		<node id="MyCiTi_398" x="-48871.22907938757" y="-3709257.6831092043" >
		</node>
		<node id="MyCiTi_399" x="-48836.22781751128" y="-3709545.5604617493" >
		</node>
		<node id="MyCiTi_4" x="-53360.3077140463" y="-3754106.4304813347" >
		</node>
		<node id="MyCiTi_40" x="-52251.19484381918" y="-3756197.9923659894" >
		</node>
		<node id="MyCiTi_400" x="-48434.69180054688" y="-3709851.7767689615" >
		</node>
		<node id="MyCiTi_401" x="-46634.064118332244" y="-3714016.641411225" >
		</node>
		<node id="MyCiTi_402" x="-46313.37190201999" y="-3714423.7172914604" >
		</node>
		<node id="MyCiTi_403" x="-45972.226343639304" y="-3714705.2570318915" >
		</node>
		<node id="MyCiTi_404" x="-46259.6954814415" y="-3714925.9205449577" >
		</node>
		<node id="MyCiTi_405" x="-46441.72750291185" y="-3715267.761378763" >
		</node>
		<node id="MyCiTi_408" x="-29180.506900234217" y="-3769953.637010749" >
		</node>
		<node id="MyCiTi_409" x="-30172.420312091628" y="-3769615.8525410173" >
		</node>
		<node id="MyCiTi_41" x="-45212.980458981576" y="-3742668.93267045" >
		</node>
		<node id="MyCiTi_410" x="-30590.352893466432" y="-3769029.099151318" >
		</node>
		<node id="MyCiTi_411" x="-30740.75766418686" y="-3768705.150210396" >
		</node>
		<node id="MyCiTi_412" x="-31370.578942006334" y="-3768549.326978305" >
		</node>
		<node id="MyCiTi_413" x="-31969.94410877192" y="-3768101.506307092" >
		</node>
		<node id="MyCiTi_414" x="-32061.551624657342" y="-3767181.776359447" >
		</node>
		<node id="MyCiTi_415" x="-32156.861861023244" y="-3766237.324698854" >
		</node>
		<node id="MyCiTi_416" x="-32005.929818140157" y="-3765756.5915653533" >
		</node>
		<node id="MyCiTi_417" x="-31721.220749928685" y="-3765484.809876674" >
		</node>
		<node id="MyCiTi_418" x="-46554.28276688467" y="-3716253.9856212223" >
		</node>
		<node id="MyCiTi_419" x="-46316.910731414835" y="-3716505.12487425" >
		</node>
		<node id="MyCiTi_42" x="-53859.27280180951" y="-3755375.752279007" >
		</node>
		<node id="MyCiTi_420" x="-34471.600550336276" y="-3771038.6266794903" >
		</node>
		<node id="MyCiTi_421" x="-34033.32608826371" y="-3770784.625028433" >
		</node>
		<node id="MyCiTi_422" x="-33458.63028954965" y="-3770490.115592248" >
		</node>
		<node id="MyCiTi_423" x="-34926.29886365587" y="-3771226.0432326095" >
		</node>
		<node id="MyCiTi_424" x="-34702.60560153565" y="-3768981.799171686" >
		</node>
		<node id="MyCiTi_425" x="-33957.558497091544" y="-3769750.4688566485" >
		</node>
		<node id="MyCiTi_426" x="-27808.467480586994" y="-3769325.0464057713" >
		</node>
		<node id="MyCiTi_427" x="-46046.93518271747" y="-3714307.4165401966" >
		</node>
		<node id="MyCiTi_428" x="-46005.87022268257" y="-3714000.086890437" >
		</node>
		<node id="MyCiTi_429" x="-46245.15205197728" y="-3714377.247176586" >
		</node>
		<node id="MyCiTi_43" x="-51663.61190475095" y="-3729832.787538302" >
		</node>
		<node id="MyCiTi_430" x="-43904.652973068216" y="-3751053.7886077263" >
		</node>
		<node id="MyCiTi_431" x="-44679.857090376754" y="-3750669.775607636" >
		</node>
		<node id="MyCiTi_432" x="-44951.1994109" y="-3750622.1924543623" >
		</node>
		<node id="MyCiTi_433" x="-45577.12771749992" y="-3750504.4311164585" >
		</node>
		<node id="MyCiTi_434" x="-46680.64518623809" y="-3750803.124726352" >
		</node>
		<node id="MyCiTi_435" x="-46987.33013603168" y="-3750728.596626791" >
		</node>
		<node id="MyCiTi_436" x="-47396.70802286599" y="-3750636.5644539297" >
		</node>
		<node id="MyCiTi_437" x="-44880.55806862477" y="-3750652.695682563" >
		</node>
		<node id="MyCiTi_438" x="-45911.607680040164" y="-3752193.479840655" >
		</node>
		<node id="MyCiTi_439" x="-43795.02902128078" y="-3750410.533470017" >
		</node>
		<node id="MyCiTi_44" x="-44503.21695203653" y="-3743509.217505987" >
		</node>
		<node id="MyCiTi_440" x="-43782.48926745466" y="-3750722.726881416" >
		</node>
		<node id="MyCiTi_441" x="-46637.09839462499" y="-3750759.7613540087" >
		</node>
		<node id="MyCiTi_442" x="-46469.33486491417" y="-3750501.595016187" >
		</node>
		<node id="MyCiTi_443" x="-45336.76756941767" y="-3751513.1375806592" >
		</node>